taxonomy/R2-35000-1.glm
// R2-35000-1.glm 

module powerflow
{
	solver_method NR;
}

object regulator:4491
{
	name R2-35-00-1_reg_1;
	from R2-35-00-1_node_1039;
	to R2-35-00-1_meter_448;
	phases ABCN;
	configuration regulator_configuration:4492;
}


object regulator_configuration:4492
{
	name feeder_reg_cfg;
	Control OUTPUT_VOLTAGE;
	band_center 19918;
	band_width 332.0;
	connect_type WYE_WYE;
	time_delay 30;
	raise_taps 16;
	lower_taps 16;
	regulation 0.10;
	tap_pos_A 0;
	tap_pos_B 0;
	tap_pos_C 0;
}


object capacitor:4482
{
	name R2-35-00-1_cap_1;
	phases ABCN;
	pt_phase B;
	parent R2-35-00-1_node_323;
	phases_connected ABC;
	control VOLT;
	voltage_set_high 21000; 
	voltage_set_low 19500; 
	capacitor_A 0.4 MVAr;
	capacitor_B 0.4 MVAr;
	capacitor_C 0.4 MVAr;
	control_level INDIVIDUAL;
	time_delay 30.0;
	dwell_time 30.0;
	cap_nominal_voltage 19920;
	nominal_voltage 19918.58;
}

object capacitor:4483
{
	name R2-35-00-1_cap_2;
	phases ABCN;
	pt_phase B;
	parent R2-35-00-1_node_82;
	phases_connected ABC;
	control VOLT;
	voltage_set_high 21000; 
	voltage_set_low 19500; 
	capacitor_A 0.2 MVAr;
	capacitor_B 0.2 MVAr;
	capacitor_C 0.2 MVAr;
	control_level INDIVIDUAL;
	time_delay 30.0;
	dwell_time 30.0;
	cap_nominal_voltage 19920;
	nominal_voltage 19918.58;
}

object capacitor:4484
{
	name R2-35-00-1_cap_3;
	phases ABCN;
	pt_phase B;
	parent R2-35-00-1_node_272;
	phases_connected ABC;
	control VOLT;
	voltage_set_high 21000; 
	voltage_set_low 19500; 
	capacitor_A 0.2 MVAr;
	capacitor_B 0.2 MVAr;
	capacitor_C 0.2 MVAr;
	control_level INDIVIDUAL;
	time_delay 30.0;
	dwell_time 30.0;
	cap_nominal_voltage 19920;
	nominal_voltage 19918.58;
}

object capacitor:4485
{
	name R2-35-00-1_cap_4;
	phases ABCN;
	pt_phase B;
	parent R2-35-00-1_node_599;
	phases_connected ABC;
	control VOLT;
	voltage_set_high 21000; 
	voltage_set_low 19500; 
	capacitor_A 0.4 MVAr;
	capacitor_B 0.4 MVAr;
	capacitor_C 0.4 MVAr;
	control_level INDIVIDUAL;
	time_delay 30.0;
	dwell_time 30.0;
	cap_nominal_voltage 19920;
	nominal_voltage 19918.58;
}

object capacitor:4486
{
	name R2-35-00-1_cap_5;
	phases ABCN;
	pt_phase B;
	parent R2-35-00-1_node_558;
	phases_connected ABC;
	control VOLT;
	voltage_set_high 21000; 
	voltage_set_low 19500; 
	capacitor_A 0.4 MVAr;
	capacitor_B 0.4 MVAr;
	capacitor_C 0.4 MVAr;
	control_level INDIVIDUAL;
	time_delay 30.0;
	dwell_time 30.0;
	cap_nominal_voltage 19920;
	nominal_voltage 19918.58;
}

object capacitor:4487
{
	name R2-35-00-1_cap_6;
	phases ABCN;
	pt_phase B;
	parent R2-35-00-1_node_32;
	phases_connected ABC;
	control VOLT;
	voltage_set_high 21000; 
	voltage_set_low 19500; 
	capacitor_A 0.2 MVAr;
	capacitor_B 0.2 MVAr;
	capacitor_C 0.2 MVAr;
	control_level INDIVIDUAL;
	time_delay 30.0;
	dwell_time 30.0;
	cap_nominal_voltage 19920;
	nominal_voltage 19918.58;
}

object capacitor:4488
{
	name R2-35-00-1_cap_7;
	phases ABCN;
	pt_phase B;
	parent R2-35-00-1_node_37;
	phases_connected ABC;
	control VOLT;
	voltage_set_high 21000; 
	voltage_set_low 19500;
	capacitor_A 0.2 MVAr;
	capacitor_B 0.2 MVAr;
	capacitor_C 0.2 MVAr;
	control_level INDIVIDUAL;
	time_delay 30.0;
	dwell_time 30.0;
	cap_nominal_voltage 19920;
	nominal_voltage 19918.58;
}

object capacitor:4489
{
	name R2-35-00-1_cap_8;
	phases ABCN;
	pt_phase B;
	parent R2-35-00-1_node_10;
	phases_connected ABC;
	control VOLT;
	voltage_set_high 21000; 
	voltage_set_low 19500; 
	capacitor_A 0.2 MVAr;
	capacitor_B 0.2 MVAr;
	capacitor_C 0.2 MVAr;
	control_level INDIVIDUAL;
	time_delay 30.0;
	dwell_time 30.0;
	cap_nominal_voltage 19920;
	nominal_voltage 19918.58;
}


object fuse:4328
{
	name R2-35-00-1_fuse_1;
	phases AN;
	from R2-35-00-1_node_164;
	to R2-35-00-1_node_528;
	current_limit 10;
	status CLOSED;
}

object fuse:4329
{
	name R2-35-00-1_fuse_2;
	phases ABCN;
	from R2-35-00-1_node_163;
	to R2-35-00-1_node_471;
	current_limit 40;
	status CLOSED;
}

object fuse:4330
{
	name R2-35-00-1_fuse_3;
	phases BN;
	from R2-35-00-1_node_156;
	to R2-35-00-1_node_522;
	current_limit 25;
	status CLOSED;
}

object fuse:4331
{
	name R2-35-00-1_fuse_4;
	phases BN;
	from R2-35-00-1_node_154;
	to R2-35-00-1_node_466;
	current_limit 25;
	status CLOSED;
}

object fuse:4332
{
	name R2-35-00-1_fuse_5;
	phases BN;
	from R2-35-00-1_node_154;
	to R2-35-00-1_node_523;
	current_limit 10;
	status CLOSED;
}

object fuse:4333
{
	name R2-35-00-1_fuse_6;
	phases CN;
	from R2-35-00-1_node_328;
	to R2-35-00-1_node_511;
	current_limit 65;
	status CLOSED;
}

object fuse:4334
{
	name R2-35-00-1_fuse_7;
	phases BN;
	from R2-35-00-1_node_238;
	to R2-35-00-1_node_503;
	current_limit 8;
	status CLOSED;
}

object fuse:4335
{
	name R2-35-00-1_fuse_8;
	phases BN;
	from R2-35-00-1_node_334;
	to R2-35-00-1_node_475;
	current_limit 10;
	status CLOSED;
}

object fuse:4336
{
	name R2-35-00-1_fuse_9;
	phases CN;
	from R2-35-00-1_node_361;
	to R2-35-00-1_node_477;
	current_limit 10;
	status CLOSED;
}

object fuse:4337
{
	name R2-35-00-1_fuse_10;
	phases AN;
	from R2-35-00-1_node_76;
	to R2-35-00-1_node_478;
	current_limit 10;
	status CLOSED;
}

object fuse:4338
{
	name R2-35-00-1_fuse_11;
	phases ABCN;
	from R2-35-00-1_node_76;
	to R2-35-00-1_node_497;
	current_limit 100;
	status CLOSED;
}

object fuse:4339
{
	name R2-35-00-1_fuse_12;
	phases AN;
	from R2-35-00-1_node_185;
	to R2-35-00-1_node_501;
	current_limit 10;
	status CLOSED;
}

object fuse:4340
{
	name R2-35-00-1_fuse_13;
	phases ABCN;
	from R2-35-00-1_node_209;
	to R2-35-00-1_node_531;
	current_limit 25;
	status CLOSED;
}

object fuse:4341
{
	name R2-35-00-1_fuse_14;
	phases ABCN;
	from R2-35-00-1_node_204;
	to R2-35-00-1_node_464;
	current_limit 65;
	status CLOSED;
}

object fuse:4342
{
	name R2-35-00-1_fuse_15;
	phases ABCN;
	from R2-35-00-1_node_241;
	to R2-35-00-1_node_447;
	current_limit 40;
	status CLOSED;
}

object fuse:4343
{
	name R2-35-00-1_fuse_16;
	phases BN;
	from R2-35-00-1_node_937;
	to R2-35-00-1_node_445;
	current_limit 10;
	status CLOSED;
}

object fuse:4344
{
	name R2-35-00-1_fuse_17;
	phases ABCN;
	from R2-35-00-1_node_330;
	to R2-35-00-1_node_507;
	current_limit 50;
	status CLOSED;
}

object fuse:4345
{
	name R2-35-00-1_fuse_18;
	phases CN;
	from R2-35-00-1_node_203;
	to R2-35-00-1_node_515;
	current_limit 8;
	status CLOSED;
}

object fuse:4346
{
	name R2-35-00-1_fuse_19;
	phases BN;
	from R2-35-00-1_node_186;
	to R2-35-00-1_node_502;
	current_limit 65;
	status CLOSED;
}

object fuse:4347
{
	name R2-35-00-1_fuse_20;
	phases ABCN;
	from R2-35-00-1_node_202;
	to R2-35-00-1_node_527;
	current_limit 8;
	status CLOSED;
}

object fuse:4348
{
	name R2-35-00-1_fuse_21;
	phases AN;
	from R2-35-00-1_node_247;
	to R2-35-00-1_node_540;
	current_limit 12;
	status CLOSED;
}

object fuse:4349
{
	name R2-35-00-1_fuse_22;
	phases ABCN;
	from R2-35-00-1_node_71;
	to R2-35-00-1_node_435;
	current_limit 25;
	status CLOSED;
}

object fuse:4350
{
	name R2-35-00-1_fuse_23;
	phases BN;
	from R2-35-00-1_node_65;
	to R2-35-00-1_node_479;
	current_limit 8;
	status CLOSED;
}

object fuse:4351
{
	name R2-35-00-1_fuse_24;
	phases ABCN;
	from R2-35-00-1_node_70;
	to R2-35-00-1_node_436;
	current_limit 12;
	status CLOSED;
}

object fuse:4352
{
	name R2-35-00-1_fuse_25;
	phases ABCN;
	from R2-35-00-1_node_90;
	to R2-35-00-1_node_496;
	current_limit 40;
	status CLOSED;
}

object fuse:4353
{
	name R2-35-00-1_fuse_26;
	phases ABCN;
	from R2-35-00-1_node_69;
	to R2-35-00-1_node_446;
	current_limit 65;
	status CLOSED;
}

object fuse:4354
{
	name R2-35-00-1_fuse_27;
	phases ABCN;
	from R2-35-00-1_node_69;
	to R2-35-00-1_node_437;
	current_limit 40;
	status CLOSED;
}

object fuse:4355
{
	name R2-35-00-1_fuse_28;
	phases AN;
	from R2-35-00-1_node_89;
	to R2-35-00-1_node_482;
	current_limit 10;
	status CLOSED;
}

object fuse:4356
{
	name R2-35-00-1_fuse_29;
	phases AN;
	from R2-35-00-1_node_89;
	to R2-35-00-1_node_481;
	current_limit 10;
	status CLOSED;
}

object fuse:4357
{
	name R2-35-00-1_fuse_30;
	phases AN;
	from R2-35-00-1_node_95;
	to R2-35-00-1_node_480;
	current_limit 10;
	status CLOSED;
}

object fuse:4358
{
	name R2-35-00-1_fuse_31;
	phases AN;
	from R2-35-00-1_node_782;
	to R2-35-00-1_node_500;
	current_limit 40;
	status CLOSED;
}

object fuse:4359
{
	name R2-35-00-1_fuse_32;
	phases AN;
	from R2-35-00-1_node_500;
	to R2-35-00-1_node_499;
	current_limit 10;
	status CLOSED;
}

object fuse:4360
{
	name R2-35-00-1_fuse_33;
	phases CN;
	from R2-35-00-1_node_670;
	to R2-35-00-1_node_547;
	current_limit 12;
	status CLOSED;
}

object fuse:4361
{
	name R2-35-00-1_fuse_34;
	phases ABN;
	from R2-35-00-1_node_269;
	to R2-35-00-1_node_508;
	current_limit 65;
	status CLOSED;
}

object fuse:4362
{
	name R2-35-00-1_fuse_35;
	phases AN;
	from R2-35-00-1_node_263;
	to R2-35-00-1_node_535;
	current_limit 12;
	status CLOSED;
}

object fuse:4363
{
	name R2-35-00-1_fuse_36;
	phases BN;
	from R2-35-00-1_node_260;
	to R2-35-00-1_node_534;
	current_limit 8;
	status CLOSED;
}

object fuse:4364
{
	name R2-35-00-1_fuse_37;
	phases BN;
	from R2-35-00-1_node_290;
	to R2-35-00-1_node_537;
	current_limit 25;
	status CLOSED;
}

object fuse:4365
{
	name R2-35-00-1_fuse_38;
	phases BN;
	from R2-35-00-1_node_268;
	to R2-35-00-1_node_536;
	current_limit 25;
	status CLOSED;
}

object fuse:4366
{
	name R2-35-00-1_fuse_39;
	phases BN;
	from R2-35-00-1_node_293;
	to R2-35-00-1_node_538;
	current_limit 25;
	status CLOSED;
}

object fuse:4367
{
	name R2-35-00-1_fuse_40;
	phases BN;
	from R2-35-00-1_node_255;
	to R2-35-00-1_node_544;
	current_limit 12;
	status CLOSED;
}

object fuse:4368
{
	name R2-35-00-1_fuse_41;
	phases CN;
	from R2-35-00-1_node_183;
	to R2-35-00-1_node_461;
	current_limit 10;
	status CLOSED;
}

object fuse:4369
{
	name R2-35-00-1_fuse_42;
	phases CN;
	from R2-35-00-1_node_199;
	to R2-35-00-1_node_539;
	current_limit 10;
	status CLOSED;
}

object fuse:4370
{
	name R2-35-00-1_fuse_43;
	phases ACN;
	from R2-35-00-1_node_283;
	to R2-35-00-1_node_498;
	current_limit 10;
	status CLOSED;
}

object fuse:4371
{
	name R2-35-00-1_fuse_44;
	phases AN;
	from R2-35-00-1_node_300;
	to R2-35-00-1_node_468;
	current_limit 25;
	status CLOSED;
}

object fuse:4372
{
	name R2-35-00-1_fuse_45;
	phases CN;
	from R2-35-00-1_node_286;
	to R2-35-00-1_node_484;
	current_limit 10;
	status CLOSED;
}

object fuse:4373
{
	name R2-35-00-1_fuse_46;
	phases ABCN;
	from R2-35-00-1_node_308;
	to R2-35-00-1_node_509;
	current_limit 40;
	status CLOSED;
}

object fuse:4374
{
	name R2-35-00-1_fuse_47;
	phases AN;
	from R2-35-00-1_node_112;
	to R2-35-00-1_node_483;
	current_limit 10;
	status CLOSED;
}

object fuse:4375
{
	name R2-35-00-1_fuse_48;
	phases AN;
	from R2-35-00-1_node_309;
	to R2-35-00-1_node_487;
	current_limit 25;
	status CLOSED;
}

object fuse:4376
{
	name R2-35-00-1_fuse_49;
	phases BN;
	from R2-35-00-1_node_313;
	to R2-35-00-1_node_434;
	current_limit 12;
	status CLOSED;
}

object fuse:4377
{
	name R2-35-00-1_fuse_50;
	phases AN;
	from R2-35-00-1_node_245;
	to R2-35-00-1_node_444;
	current_limit 6;
	status CLOSED;
}

object fuse:4378
{
	name R2-35-00-1_fuse_51;
	phases ABCN;
	from R2-35-00-1_node_114;
	to R2-35-00-1_node_438;
	current_limit 65;
	status CLOSED;
}

object fuse:4379
{
	name R2-35-00-1_fuse_52;
	phases BN;
	from R2-35-00-1_node_134;
	to R2-35-00-1_node_488;
	current_limit 30;
	status CLOSED;
}

object fuse:4380
{
	name R2-35-00-1_fuse_53;
	phases CN;
	from R2-35-00-1_node_134;
	to R2-35-00-1_node_489;
	current_limit 25;
	status CLOSED;
}

object fuse:4381
{
	name R2-35-00-1_fuse_54;
	phases ABCN;
	from R2-35-00-1_node_317;
	to R2-35-00-1_node_494;
	current_limit 10;
	status CLOSED;
}

object fuse:4382
{
	name R2-35-00-1_fuse_55;
	phases BN;
	from R2-35-00-1_node_3;
	to R2-35-00-1_node_451;
	current_limit 12;
	status CLOSED;
}

object fuse:4383
{
	name R2-35-00-1_fuse_56;
	phases AN;
	from R2-35-00-1_node_318;
	to R2-35-00-1_node_469;
	current_limit 12;
	status CLOSED;
}

object fuse:4384
{
	name R2-35-00-1_fuse_57;
	phases AN;
	from R2-35-00-1_node_316;
	to R2-35-00-1_node_546;
	current_limit 40;
	status CLOSED;
}

object fuse:4385
{
	name R2-35-00-1_fuse_58;
	phases ABCN;
	from R2-35-00-1_node_316;
	to R2-35-00-1_node_495;
	current_limit 40;
	status CLOSED;
}

object fuse:4386
{
	name R2-35-00-1_fuse_59;
	phases BN;
	from R2-35-00-1_node_152;
	to R2-35-00-1_node_458;
	current_limit 12;
	status CLOSED;
}

object fuse:4387
{
	name R2-35-00-1_fuse_60;
	phases CN;
	from R2-35-00-1_node_137;
	to R2-35-00-1_node_490;
	current_limit 25;
	status CLOSED;
}

object fuse:4388
{
	name R2-35-00-1_fuse_61;
	phases ABN;
	from R2-35-00-1_node_230;
	to R2-35-00-1_node_505;
	current_limit 25;
	status CLOSED;
}

object fuse:4389
{
	name R2-35-00-1_fuse_62;
	phases CN;
	from R2-35-00-1_node_218;
	to R2-35-00-1_node_506;
	current_limit 25;
	status CLOSED;
}

object fuse:4390
{
	name R2-35-00-1_fuse_63;
	phases ABCN;
	from R2-35-00-1_node_188;
	to R2-35-00-1_node_532;
	current_limit 25;
	status CLOSED;
}

object fuse:4391
{
	name R2-35-00-1_fuse_64;
	phases ABCN;
	from R2-35-00-1_node_117;
	to R2-35-00-1_node_485;
	current_limit 30;
	status CLOSED;
}

object fuse:4392
{
	name R2-35-00-1_fuse_65;
	phases BN;
	from R2-35-00-1_node_324;
	to R2-35-00-1_node_542;
	current_limit 10;
	status CLOSED;
}

object fuse:4393
{
	name R2-35-00-1_fuse_66;
	phases ABCN;
	from R2-35-00-1_node_138;
	to R2-35-00-1_node_448;
	current_limit 40;
	status CLOSED;
}

object fuse:4394
{
	name R2-35-00-1_fuse_67;
	phases CN;
	from R2-35-00-1_node_321;
	to R2-35-00-1_node_529;
	current_limit 15;
	status CLOSED;
}

object fuse:4395
{
	name R2-35-00-1_fuse_68;
	phases BN;
	from R2-35-00-1_node_6;
	to R2-35-00-1_node_470;
	current_limit 25;
	status CLOSED;
}

object fuse:4396
{
	name R2-35-00-1_fuse_69;
	phases BN;
	from R2-35-00-1_node_4;
	to R2-35-00-1_node_474;
	current_limit 12;
	status CLOSED;
}

object fuse:4397
{
	name R2-35-00-1_fuse_70;
	phases BCN;
	from R2-35-00-1_node_143;
	to R2-35-00-1_node_491;
	current_limit 25;
	status CLOSED;
}

object fuse:4398
{
	name R2-35-00-1_fuse_71;
	phases ACN;
	from R2-35-00-1_node_140;
	to R2-35-00-1_node_449;
	current_limit 15;
	status CLOSED;
}

object fuse:4399
{
	name R2-35-00-1_fuse_72;
	phases BCN;
	from R2-35-00-1_node_235;
	to R2-35-00-1_node_504;
	current_limit 25;
	status CLOSED;
}

object fuse:4400
{
	name R2-35-00-1_fuse_73;
	phases ABCN;
	from R2-35-00-1_node_311;
	to R2-35-00-1_node_460;
	current_limit 25;
	status CLOSED;
}

object fuse:4401
{
	name R2-35-00-1_fuse_74;
	phases BN;
	from R2-35-00-1_node_176;
	to R2-35-00-1_node_526;
	current_limit 10;
	status CLOSED;
}

object fuse:4402
{
	name R2-35-00-1_fuse_75;
	phases CN;
	from R2-35-00-1_node_141;
	to R2-35-00-1_node_492;
	current_limit 40;
	status CLOSED;
}

object fuse:4403
{
	name R2-35-00-1_fuse_76;
	phases AN;
	from R2-35-00-1_node_305;
	to R2-35-00-1_node_472;
	current_limit 25;
	status CLOSED;
}

object fuse:4404
{
	name R2-35-00-1_fuse_77;
	phases CN;
	from R2-35-00-1_node_150;
	to R2-35-00-1_node_541;
	current_limit 12;
	status CLOSED;
}

object fuse:4405
{
	name R2-35-00-1_fuse_78;
	phases AN;
	from R2-35-00-1_node_303;
	to R2-35-00-1_node_525;
	current_limit 15;
	status CLOSED;
}

object fuse:4406
{
	name R2-35-00-1_fuse_79;
	phases AN;
	from R2-35-00-1_node_303;
	to R2-35-00-1_node_524;
	current_limit 8;
	status CLOSED;
}

object fuse:4407
{
	name R2-35-00-1_fuse_80;
	phases CN;
	from R2-35-00-1_node_100;
	to R2-35-00-1_node_457;
	current_limit 12;
	status CLOSED;
}

object fuse:4408
{
	name R2-35-00-1_fuse_81;
	phases CN;
	from R2-35-00-1_node_147;
	to R2-35-00-1_node_465;
	current_limit 25;
	status CLOSED;
}

object fuse:4409
{
	name R2-35-00-1_fuse_82;
	phases ABCN;
	from R2-35-00-1_node_493;
	to R2-35-00-1_node_1032;
	current_limit 65;
	status CLOSED;
}

object fuse:4410
{
	name R2-35-00-1_fuse_83;
	phases CN;
	from R2-35-00-1_node_151;
	to R2-35-00-1_node_545;
	current_limit 12;
	status CLOSED;
}

object fuse:4411
{
	name R2-35-00-1_fuse_84;
	phases ABCN;
	from R2-35-00-1_node_40;
	to R2-35-00-1_node_467;
	current_limit 12;
	status CLOSED;
}

object fuse:4412
{
	name R2-35-00-1_fuse_85;
	phases CN;
	from R2-35-00-1_node_26;
	to R2-35-00-1_node_513;
	current_limit 10;
	status CLOSED;
}

object fuse:4413
{
	name R2-35-00-1_fuse_86;
	phases BN;
	from R2-35-00-1_node_709;
	to R2-35-00-1_node_456;
	current_limit 10;
	status CLOSED;
}

object fuse:4414
{
	name R2-35-00-1_fuse_87;
	phases ABCN;
	from R2-35-00-1_node_44;
	to R2-35-00-1_node_443;
	current_limit 65;
	status CLOSED;
}

object fuse:4415
{
	name R2-35-00-1_fuse_88;
	phases ABCN;
	from R2-35-00-1_node_44;
	to R2-35-00-1_node_442;
	current_limit 65;
	status CLOSED;
}

object fuse:4416
{
	name R2-35-00-1_fuse_89;
	phases ABCN;
	from R2-35-00-1_node_44;
	to R2-35-00-1_node_439;
	current_limit 65;
	status CLOSED;
}

object fuse:4417
{
	name R2-35-00-1_fuse_90;
	phases CN;
	from R2-35-00-1_node_712;
	to R2-35-00-1_node_516;
	current_limit 20;
	status CLOSED;
}

object fuse:4418
{
	name R2-35-00-1_fuse_91;
	phases AN;
	from R2-35-00-1_node_53;
	to R2-35-00-1_node_533;
	current_limit 12;
	status CLOSED;
}

object fuse:4419
{
	name R2-35-00-1_fuse_92;
	phases AN;
	from R2-35-00-1_node_43;
	to R2-35-00-1_node_463;
	current_limit 25;
	status CLOSED;
}

object fuse:4420
{
	name R2-35-00-1_fuse_93;
	phases AN;
	from R2-35-00-1_node_347;
	to R2-35-00-1_node_514;
	current_limit 10;
	status CLOSED;
}

object fuse:4421
{
	name R2-35-00-1_fuse_94;
	phases BN;
	from R2-35-00-1_node_173;
	to R2-35-00-1_node_510;
	current_limit 25;
	status CLOSED;
}

object fuse:4422
{
	name R2-35-00-1_fuse_95;
	phases ABCN;
	from R2-35-00-1_node_945;
	to R2-35-00-1_node_486;
	current_limit 65;
	status CLOSED;
}

object fuse:4423
{
	name R2-35-00-1_fuse_96;
	phases AN;
	from R2-35-00-1_node_963;
	to R2-35-00-1_node_462;
	current_limit 25;
	status CLOSED;
}

object fuse:4424
{
	name R2-35-00-1_fuse_97;
	phases BN;
	from R2-35-00-1_node_920;
	to R2-35-00-1_node_548;
	current_limit 12;
	status CLOSED;
}

object fuse:4425
{
	name R2-35-00-1_fuse_98;
	phases ABCN;
	from R2-35-00-1_node_52;
	to R2-35-00-1_node_543;
	current_limit 25;
	status CLOSED;
}

object fuse:4426
{
	name R2-35-00-1_fuse_99;
	phases AN;
	from R2-35-00-1_node_47;
	to R2-35-00-1_node_450;
	current_limit 20;
	status CLOSED;
}

object fuse:4427
{
	name R2-35-00-1_fuse_100;
	phases AN;
	from R2-35-00-1_node_174;
	to R2-35-00-1_node_517;
	current_limit 25;
	status CLOSED;
}

object fuse:4428
{
	name R2-35-00-1_fuse_101;
	phases ABN;
	from R2-35-00-1_node_56;
	to R2-35-00-1_node_549;
	current_limit 20;
	status CLOSED;
}

object fuse:4429
{
	name R2-35-00-1_fuse_102;
	phases BN;
	from R2-35-00-1_node_627;
	to R2-35-00-1_node_476;
	current_limit 40;
	status CLOSED;
}

object fuse:4430
{
	name R2-35-00-1_fuse_103;
	phases BN;
	from R2-35-00-1_node_9;
	to R2-35-00-1_node_530;
	current_limit 15;
	status CLOSED;
}

object fuse:4431
{
	name R2-35-00-1_fuse_104;
	phases ABCN;
	from R2-35-00-1_node_15;
	to R2-35-00-1_node_441;
	current_limit 30;
	status CLOSED;
}

object fuse:4432
{
	name R2-35-00-1_fuse_105;
	phases ABN;
	from R2-35-00-1_node_921;
	to R2-35-00-1_node_550;
	current_limit 40;
	status CLOSED;
}

object fuse:4433
{
	name R2-35-00-1_fuse_106;
	phases BN;
	from R2-35-00-1_node_171;
	to R2-35-00-1_node_459;
	current_limit 10;
	status CLOSED;
}

object fuse:4434
{
	name R2-35-00-1_fuse_107;
	phases ABCN;
	from R2-35-00-1_node_17;
	to R2-35-00-1_node_440;
	current_limit 30;
	status CLOSED;
}

object fuse:4435
{
	name R2-35-00-1_fuse_108;
	phases CN;
	from R2-35-00-1_node_61;
	to R2-35-00-1_node_452;
	current_limit 20;
	status CLOSED;
}

object fuse:4436
{
	name R2-35-00-1_fuse_109;
	phases AN;
	from R2-35-00-1_node_62;
	to R2-35-00-1_node_454;
	current_limit 20;
	status CLOSED;
}

object fuse:4437
{
	name R2-35-00-1_fuse_110;
	phases CN;
	from R2-35-00-1_node_961;
	to R2-35-00-1_node_453;
	current_limit 30;
	status CLOSED;
}

object fuse:4438
{
	name R2-35-00-1_fuse_111;
	phases AN;
	from R2-35-00-1_node_962;
	to R2-35-00-1_node_455;
	current_limit 30;
	status CLOSED;
}

object fuse:4439
{
	name R2-35-00-1_fuse_112;
	phases CN;
	from R2-35-00-1_node_8;
	to R2-35-00-1_node_512;
	current_limit 50;
	status CLOSED;
}

object fuse:4440
{
	name R2-35-00-1_fuse_113;
	phases CN;
	from R2-35-00-1_node_168;
	to R2-35-00-1_node_521;
	current_limit 15;
	status CLOSED;
}

object fuse:4441
{
	name R2-35-00-1_fuse_114;
	phases CN;
	from R2-35-00-1_node_155;
	to R2-35-00-1_node_518;
	current_limit 15;
	status CLOSED;
}

object fuse:4442
{
	name R2-35-00-1_fuse_115;
	phases CN;
	from R2-35-00-1_node_167;
	to R2-35-00-1_node_520;
	current_limit 10;
	status CLOSED;
}

object fuse:4443
{
	name R2-35-00-1_fuse_116;
	phases CN;
	from R2-35-00-1_node_165;
	to R2-35-00-1_node_519;
	current_limit 10;
	status CLOSED;
}


object line_configuration:28
{
	conductor_C overhead_line_conductor:2;
	conductor_N overhead_line_conductor:2;
	spacing line_spacing:15;
}

object line_configuration:29
{
	conductor_C overhead_line_conductor:3;
	conductor_N overhead_line_conductor:3;
	spacing line_spacing:15;
}

object line_configuration:30
{
	conductor_A overhead_line_conductor:4;
	conductor_B overhead_line_conductor:4;
	conductor_C overhead_line_conductor:4;
	conductor_N overhead_line_conductor:4;
	spacing line_spacing:16;
}

object line_configuration:31
{
	conductor_B overhead_line_conductor:4;
	conductor_N overhead_line_conductor:4;
	spacing line_spacing:17;
}

object line_configuration:32
{
	conductor_A overhead_line_conductor:2;
	conductor_B overhead_line_conductor:2;
	conductor_C overhead_line_conductor:2;
	conductor_N overhead_line_conductor:2;
	spacing line_spacing:16;
}

object line_configuration:33
{
	conductor_A overhead_line_conductor:5;
	conductor_B overhead_line_conductor:5;
	conductor_C overhead_line_conductor:5;
	conductor_N overhead_line_conductor:5;
	spacing line_spacing:16;
}

object line_configuration:34
{
	conductor_A overhead_line_conductor:4;
	conductor_N overhead_line_conductor:4;
	spacing line_spacing:18;
}

object line_configuration:35
{
	conductor_A overhead_line_conductor:4;
	conductor_B overhead_line_conductor:4;
	conductor_C overhead_line_conductor:4;
	conductor_N overhead_line_conductor:4;
	spacing line_spacing:16;
}

object line_configuration:36
{
	conductor_A overhead_line_conductor:5;
	conductor_B overhead_line_conductor:5;
	conductor_C overhead_line_conductor:5;
	conductor_N overhead_line_conductor:5;
	spacing line_spacing:16;
}

object line_configuration:37
{
	conductor_B overhead_line_conductor:5;
	conductor_N overhead_line_conductor:5;
	spacing line_spacing:17;
}

object line_configuration:38
{
	conductor_A overhead_line_conductor:6;
	conductor_B overhead_line_conductor:6;
	conductor_C overhead_line_conductor:6;
	conductor_N overhead_line_conductor:6;
	spacing line_spacing:16;
}

object line_configuration:39
{
	conductor_A overhead_line_conductor:3;
	conductor_N overhead_line_conductor:3;
	spacing line_spacing:18;
}

object line_configuration:40
{
	conductor_A overhead_line_conductor:3;
	conductor_B overhead_line_conductor:3;
	conductor_C overhead_line_conductor:3;
	conductor_N overhead_line_conductor:3;
	spacing line_spacing:16;
}

object line_configuration:41
{
	conductor_B overhead_line_conductor:3;
	conductor_N overhead_line_conductor:3;
	spacing line_spacing:17;
}

object line_configuration:42
{
	conductor_C overhead_line_conductor:4;
	conductor_N overhead_line_conductor:4;
	spacing line_spacing:15;
}

object line_configuration:43
{
	conductor_A overhead_line_conductor:7;
	conductor_N overhead_line_conductor:7;
	spacing line_spacing:18;
}

object line_configuration:44
{
	conductor_A overhead_line_conductor:5;
	conductor_N overhead_line_conductor:5;
	spacing line_spacing:18;
}

object line_configuration:45
{
	conductor_A overhead_line_conductor:8;
	conductor_B overhead_line_conductor:8;
	conductor_C overhead_line_conductor:8;
	conductor_N overhead_line_conductor:8;
	spacing line_spacing:16;
}

object line_configuration:46
{
	conductor_B underground_line_conductor:9;
	conductor_N underground_line_conductor:9;
	spacing line_spacing:19;
}

object line_configuration:47
{
	conductor_A overhead_line_conductor:10;
	conductor_B overhead_line_conductor:10;
	conductor_C overhead_line_conductor:10;
	conductor_N overhead_line_conductor:10;
	spacing line_spacing:16;
}

object line_configuration:48
{
	conductor_A overhead_line_conductor:2;
	conductor_B overhead_line_conductor:2;
	conductor_C overhead_line_conductor:2;
	conductor_N overhead_line_conductor:2;
	spacing line_spacing:16;
}

object line_configuration:49
{
	conductor_B overhead_line_conductor:2;
	conductor_N overhead_line_conductor:2;
	spacing line_spacing:17;
}

object line_configuration:50
{
	conductor_A overhead_line_conductor:3;
	conductor_N overhead_line_conductor:3;
	spacing line_spacing:20;
}

object line_configuration:51
{
	conductor_A underground_line_conductor:9;
	conductor_N underground_line_conductor:9;
	spacing line_spacing:21;
}

object line_configuration:52
{
	conductor_C underground_line_conductor:9;
	conductor_N underground_line_conductor:9;
	spacing line_spacing:22;
}

object line_configuration:53
{
	conductor_A underground_line_conductor:11;
	conductor_N underground_line_conductor:11;
	spacing line_spacing:21;
}

object line_configuration:54
{
	conductor_A underground_line_conductor:9;
	conductor_B underground_line_conductor:9;
	conductor_C underground_line_conductor:9;
	conductor_N underground_line_conductor:9;
	spacing line_spacing:23;
}

object line_configuration:55
{
	conductor_A overhead_line_conductor:6;
	conductor_B overhead_line_conductor:6;
	conductor_C overhead_line_conductor:6;
	conductor_N overhead_line_conductor:6;
	spacing line_spacing:16;
}

object line_configuration:56
{
	conductor_B overhead_line_conductor:4;
	conductor_N overhead_line_conductor:4;
	spacing line_spacing:17;
}

object line_configuration:57
{
	conductor_A overhead_line_conductor:6;
	conductor_B overhead_line_conductor:6;
	conductor_C overhead_line_conductor:6;
	conductor_N overhead_line_conductor:6;
	spacing line_spacing:16;
}

object line_configuration:58
{
	conductor_A overhead_line_conductor:2;
	conductor_N overhead_line_conductor:2;
	spacing line_spacing:18;
}

object line_configuration:59
{
	conductor_A overhead_line_conductor:10;
	conductor_B overhead_line_conductor:10;
	conductor_C overhead_line_conductor:10;
	conductor_N overhead_line_conductor:10;
	spacing line_spacing:16;
}

object line_configuration:60
{
	conductor_A overhead_line_conductor:12;
	conductor_B overhead_line_conductor:12;
	conductor_C overhead_line_conductor:12;
	conductor_N overhead_line_conductor:12;
	spacing line_spacing:16;
}

object line_configuration:61
{
	conductor_B overhead_line_conductor:4;
	conductor_C overhead_line_conductor:4;
	conductor_N overhead_line_conductor:4;
	spacing line_spacing:24;
}

object line_configuration:62
{
	conductor_A overhead_line_conductor:13;
	conductor_B overhead_line_conductor:13;
	conductor_C overhead_line_conductor:13;
	conductor_N overhead_line_conductor:13;
	spacing line_spacing:16;
}

object line_configuration:63
{
	conductor_B overhead_line_conductor:2;
	conductor_C overhead_line_conductor:2;
	conductor_N overhead_line_conductor:2;
	spacing line_spacing:24;
}

object line_configuration:64
{
	conductor_C overhead_line_conductor:10;
	conductor_N overhead_line_conductor:10;
	spacing line_spacing:15;
}

object line_configuration:65
{
	conductor_A overhead_line_conductor:3;
	conductor_B overhead_line_conductor:3;
	conductor_C overhead_line_conductor:3;
	conductor_N overhead_line_conductor:3;
	spacing line_spacing:16;
}

object line_configuration:66
{
	conductor_C underground_line_conductor:11;
	conductor_N underground_line_conductor:11;
	spacing line_spacing:22;
}

object line_configuration:67
{
	conductor_A overhead_line_conductor:13;
	conductor_N overhead_line_conductor:13;
	spacing line_spacing:18;
}

object line_configuration:68
{
	conductor_A overhead_line_conductor:3;
	conductor_C overhead_line_conductor:3;
	conductor_N overhead_line_conductor:3;
	spacing line_spacing:25;
}

object line_configuration:69
{
	conductor_A overhead_line_conductor:10;
	conductor_C overhead_line_conductor:10;
	conductor_N overhead_line_conductor:10;
	spacing line_spacing:25;
}

object line_configuration:70
{
	conductor_A overhead_line_conductor:2;
	conductor_C overhead_line_conductor:2;
	conductor_N overhead_line_conductor:2;
	spacing line_spacing:25;
}

object line_configuration:71
{
	conductor_A overhead_line_conductor:4;
	conductor_C overhead_line_conductor:4;
	conductor_N overhead_line_conductor:4;
	spacing line_spacing:25;
}

object line_configuration:72
{
	conductor_A overhead_line_conductor:3;
	conductor_B overhead_line_conductor:3;
	conductor_N overhead_line_conductor:3;
	spacing line_spacing:26;
}

object line_configuration:73
{
	conductor_A overhead_line_conductor:2;
	conductor_B overhead_line_conductor:2;
	conductor_N overhead_line_conductor:2;
	spacing line_spacing:26;
}

object line_configuration:74
{
	conductor_B underground_line_conductor:11;
	conductor_N underground_line_conductor:11;
	spacing line_spacing:19;
}

object line_configuration:75
{
	conductor_B overhead_line_conductor:2;
	conductor_N overhead_line_conductor:2;
	spacing line_spacing:17;
}

object line_configuration:76
{
	conductor_A overhead_line_conductor:5;
	conductor_B overhead_line_conductor:5;
	conductor_C overhead_line_conductor:5;
	conductor_N overhead_line_conductor:5;
	spacing line_spacing:16;
}

object line_configuration:77
{
	conductor_A overhead_line_conductor:5;
	conductor_B overhead_line_conductor:5;
	conductor_C overhead_line_conductor:5;
	conductor_N overhead_line_conductor:5;
	spacing line_spacing:16;
}

object line_configuration:78
{
	conductor_C overhead_line_conductor:6;
	conductor_N overhead_line_conductor:6;
	spacing line_spacing:15;
}

object line_configuration:79
{
	conductor_A underground_line_conductor:9;
	conductor_B underground_line_conductor:9;
	conductor_N underground_line_conductor:9;
	spacing line_spacing:27;
}

object line_configuration:80
{
	conductor_C overhead_line_conductor:12;
	conductor_N overhead_line_conductor:12;
	spacing line_spacing:15;
}

object line_configuration:81
{
	conductor_B overhead_line_conductor:4;
	conductor_C overhead_line_conductor:4;
	conductor_N overhead_line_conductor:4;
	spacing line_spacing:24;
}

object line_configuration:82
{
	conductor_A overhead_line_conductor:3;
	conductor_B overhead_line_conductor:3;
	conductor_C overhead_line_conductor:3;
	conductor_N overhead_line_conductor:3;
	spacing line_spacing:23;
}

object line_configuration:83
{
	conductor_B overhead_line_conductor:3;
	conductor_C overhead_line_conductor:3;
	conductor_N overhead_line_conductor:3;
	spacing line_spacing:24;
}

object line_configuration:84
{
	conductor_C overhead_line_conductor:4;
	conductor_N overhead_line_conductor:4;
	spacing line_spacing:15;
}

object line_configuration:85
{
	conductor_A overhead_line_conductor:5;
	conductor_C overhead_line_conductor:5;
	conductor_N overhead_line_conductor:5;
	spacing line_spacing:25;
}

object line_configuration:86
{
	conductor_C overhead_line_conductor:7;
	conductor_N overhead_line_conductor:7;
	spacing line_spacing:15;
}

object line_configuration:87
{
	conductor_C overhead_line_conductor:5;
	conductor_N overhead_line_conductor:5;
	spacing line_spacing:15;
}


object line_spacing:15
{
	distance_CN 39.396 in;
}

object line_spacing:16
{
	distance_AB 48.0 in;
	distance_BC 48.0 in;
	distance_AC 48.0 in;
	distance_AN 39.396 in;
	distance_BN 39.396 in;
	distance_CN 39.396 in;
}

object line_spacing:17
{
	distance_BN 39.396 in;
}

object line_spacing:18
{
	distance_AN 39.396 in;
}

object line_spacing:19
{
	distance_BN 36.0 in;
}

object line_spacing:20
{
	distance_AN 39.4 in;
}

object line_spacing:21
{
	distance_AN 36.0 in;
}

object line_spacing:22
{
	distance_CN 36.0 in;
}

object line_spacing:23
{
	distance_AB 48.0 in;
	distance_BC 48.0 in;
	distance_AC 48.0 in;
	distance_AN 36.0 in;
	distance_BN 36.0 in;
	distance_CN 36.0 in;
}

object line_spacing:24
{
	distance_BC 48.0 in;
	distance_BN 39.396 in;
	distance_CN 39.396 in;
}

object line_spacing:25
{
	distance_AC 48.0 in;
	distance_AN 39.396 in;
	distance_CN 39.396 in;
}

object line_spacing:26
{
	distance_AB 48.0 in;
	distance_AN 39.396 in;
	distance_BN 39.396 in;
}

object line_spacing:27
{
	distance_AB 48.0 in;
	distance_AN 36.0 in;
	distance_BN 36.0 in;
}


object load:1126
{
	name R2-35-00-1_load_1;
	parent R2-35-00-1_meter_1;
	phases ABCN;
	voltage_A 19918.58+0.0j;
	voltage_B -9959.29-17250j;
	voltage_C -9959.29+17250j;
	constant_power_A 5000+3200j;
	constant_power_B 4828.8585+5121.4699j;
	constant_power_C 7976.7311+8457.5467j;
	nominal_voltage 19918.58;
	load_class A;
}

object load:1127
{
	name R2-35-00-1_load_2;
	parent R2-35-00-1_meter_2;
	phases AN;
	voltage_A 19918.58+0.0j;
	constant_power_A 8221.145+8667.5163j;
	nominal_voltage 19918.58;
	load_class A;
}

object load:1128
{
	name R2-35-00-1_load_3;
	parent R2-35-00-1_meter_3;
	phases ABCN;
	voltage_A 19918.58+0.0j;
	voltage_B -9959.29-17250j;
	voltage_C -9959.29+17250j;
	constant_power_A 4932.687+5200.5098j;
	constant_power_B 5000+3200j;
	constant_power_C 5000+3200j;
	nominal_voltage 19918.58;
	load_class A;
}

object load:1129
{
	name R2-35-00-1_load_4;
	parent R2-35-00-1_meter_4;
	phases AN;
	voltage_A 19918.58+0.0j;
	constant_power_A 25000+27000j;
	nominal_voltage 19918.58;
	load_class A;
}

object load:1130
{
	name R2-35-00-1_load_5;
	parent R2-35-00-1_meter_5;
	phases AN;
	voltage_A 19918.58+0.0j;
	constant_power_A 8221.145+8667.5163j;
	nominal_voltage 19918.58;
	load_class A;
}

object load:1131
{
	name R2-35-00-1_load_6;
	parent R2-35-00-1_meter_6;
	phases AN;
	voltage_A 19918.58+0.0j;
	constant_power_A 8221.145+8667.5163j;
	nominal_voltage 19918.58;
	load_class A;
}

object load:1132
{
	name R2-35-00-1_load_7;
	parent R2-35-00-1_meter_7;
	phases AN;
	voltage_A 19918.58+0.0j;
	constant_power_A 4932.687+5200.5098j;
	nominal_voltage 19918.58;
	load_class A;
}

object load:1133
{
	name R2-35-00-1_load_8;
	parent R2-35-00-1_meter_8;
	phases ABCN;
	voltage_A 19918.58+0.0j;
	voltage_B -9959.29-17250j;
	voltage_C -9959.29+17250j;
	constant_power_A 9865.374+10401.0196j;
	constant_power_B 9657.717+10242.9397j;
	constant_power_C 9572.0773+10149.0561j;
	nominal_voltage 19918.58;
	load_class A;
}

object load:1134
{
	name R2-35-00-1_load_9;
	parent R2-35-00-1_meter_9;
	phases AN;
	voltage_A 19918.58+0.0j;
	constant_power_A 4932.687+5200.5098j;
	nominal_voltage 19918.58;
	load_class A;
}

object load:1135
{
	name R2-35-00-1_load_10;
	parent R2-35-00-1_meter_10;
	phases AN;
	voltage_A 19918.58+0.0j;
	constant_power_A 4932.687+5200.5098j;
	nominal_voltage 19918.58;
	load_class A;
}

object load:1136
{
	name R2-35-00-1_load_11;
	parent R2-35-00-1_meter_11;
	phases AN;
	voltage_A 19918.58+0.0j;
	constant_power_A 4932.687+5200.5098j;
	nominal_voltage 19918.58;
	load_class A;
}

object load:1137
{
	name R2-35-00-1_load_12;
	parent R2-35-00-1_meter_12;
	phases ABCN;
	voltage_A 19918.58+0.0j;
	voltage_B -9959.29-17250j;
	voltage_C -9959.29+17250j;
	constant_power_A 4932.687+5200.5098j;
	constant_power_B 4828.8585+5121.4699j;
	constant_power_C 4786.0386+5074.528j;
	nominal_voltage 19918.58;
	load_class A;
}

object load:1138
{
	name R2-35-00-1_load_13;
	parent R2-35-00-1_meter_13;
	phases BN;
	voltage_B -9959.29-17250j;
	constant_power_B 5000+3200j;
	nominal_voltage 19918.58;
	load_class A;
}

object load:1139
{
	name R2-35-00-1_load_14;
	parent R2-35-00-1_meter_14;
	phases BN;
	voltage_B -9959.29-17250j;
	constant_power_B 9657.717+10242.9397j;
	nominal_voltage 19918.58;
	load_class A;
}

object load:1140
{
	name R2-35-00-1_load_15;
	parent R2-35-00-1_meter_15;
	phases ABCN;
	voltage_A 19918.58+0.0j;
	voltage_B -9959.29-17250j;
	voltage_C -9959.29+17250j;
	constant_power_A 8221.145+8667.5163j;
	constant_power_B 5000+3200j;
	constant_power_C 5000+3200j;
	nominal_voltage 19918.58;
	load_class A;
}

object load:1141
{
	name R2-35-00-1_load_16;
	parent R2-35-00-1_meter_16;
	phases ABCN;
	voltage_A 19918.58+0.0j;
	voltage_B -9959.29-17250j;
	voltage_C -9959.29+17250j;
	constant_power_A 9865.374+10401.0196j;
	constant_power_B 4828.8585+5121.4699j;
	constant_power_C 4786.0386+5074.528j;
	nominal_voltage 19918.58;
	load_class A;
}

object load:1142
{
	name R2-35-00-1_load_17;
	parent R2-35-00-1_meter_17;
	phases BN;
	voltage_B -9959.29-17250j;
	constant_power_B 9657.717+10242.9397j;
	nominal_voltage 19918.58;
	load_class A;
}

object load:1143
{
	name R2-35-00-1_load_18;
	parent R2-35-00-1_meter_18;
	phases CN;
	voltage_C -9959.29+17250j;
	constant_power_C 17548.8084+18606.6028j;
	nominal_voltage 19918.58;
	load_class A;
}

object load:1144
{
	name R2-35-00-1_load_19;
	parent R2-35-00-1_meter_19;
	phases AN;
	voltage_A 19918.58+0.0j;
	constant_power_A 9865.374+10401.0196j;
	nominal_voltage 19918.58;
	load_class A;
}

object load:1145
{
	name R2-35-00-1_load_20;
	parent R2-35-00-1_meter_20;
	phases BN;
	voltage_B -9959.29-17250j;
	constant_power_B 16096.195+17071.5662j;
	nominal_voltage 19918.58;
	load_class A;
}

object load:1146
{
	name R2-35-00-1_load_21;
	parent R2-35-00-1_meter_21;
	phases ABCN;
	voltage_A 19918.58+0.0j;
	voltage_B -9959.29-17250j;
	voltage_C -9959.29+17250j;
	constant_power_A 8221.145+8667.5163j;
	constant_power_B 5000+3200j;
	constant_power_C 4786.0386+5074.528j;
	nominal_voltage 19918.58;
	load_class A;
}

object load:1147
{
	name R2-35-00-1_load_22;
	parent R2-35-00-1_meter_22;
	phases BN;
	voltage_B -9959.29-17250j;
	constant_power_B 4828.8585+5121.4699j;
	nominal_voltage 19918.58;
	load_class A;
}

object load:1148
{
	name R2-35-00-1_load_23;
	parent R2-35-00-1_meter_23;
	phases ABCN;
	voltage_A 19918.58+0.0j;
	voltage_B -9959.29-17250j;
	voltage_C -9959.29+17250j;
	constant_power_A 16442.29+17335.0326j;
	constant_power_B 16096.195+17071.5662j;
	constant_power_C 23930.1932+25372.6402j;
	nominal_voltage 19918.58;
	load_class A;
}

object load:1149
{
	name R2-35-00-1_load_24;
	parent R2-35-00-1_meter_24;
	phases ABCN;
	voltage_A 19918.58+0.0j;
	voltage_B -9959.29-17250j;
	voltage_C -9959.29+17250j;
	constant_power_A 8221.145+8667.5163j;
	constant_power_B 8048.0975+8535.7831j;
	constant_power_C 7976.7311+8457.5467j;
	nominal_voltage 19918.58;
	load_class A;
}

object load:1150
{
	name R2-35-00-1_load_25;
	parent R2-35-00-1_meter_25;
	phases ABCN;
	voltage_A 19918.58+0.0j;
	voltage_B -9959.29-17250j;
	voltage_C -9959.29+17250j;
	constant_power_A 16442.29+17335.0326j;
	constant_power_B 24144.2925+25607.3494j;
	constant_power_C 15953.4622+16915.0935j;
	nominal_voltage 19918.58;
	load_class A;
}

object load:1151
{
	name R2-35-00-1_load_26;
	parent R2-35-00-1_meter_26;
	phases CN;
	voltage_C -9959.29+17250j;
	constant_power_C 9572.0773+10149.0561j;
	nominal_voltage 19918.58;
	load_class A;
}

object load:1152
{
	name R2-35-00-1_load_27;
	parent R2-35-00-1_meter_27;
	phases BN;
	voltage_B -9959.29-17250j;
	constant_power_B 4828.8585+5121.4699j;
	nominal_voltage 19918.58;
	load_class A;
}

object load:1153
{
	name R2-35-00-1_load_28;
	parent R2-35-00-1_meter_28;
	phases AN;
	voltage_A 19918.58+0.0j;
	constant_power_A 37817.2669+39870.575j;
	nominal_voltage 19918.58;
	load_class A;
}

object load:1154
{
	name R2-35-00-1_load_29;
	parent R2-35-00-1_meter_29;
	phases AN;
	voltage_A 19918.58+0.0j;
	constant_power_A 9865.374+10401.0196j;
	nominal_voltage 19918.58;
	load_class A;
}

object load:1155
{
	name R2-35-00-1_load_30;
	parent R2-35-00-1_meter_30;
	phases ABCN;
	voltage_A 19918.58+0.0j;
	voltage_B -9959.29-17250j;
	voltage_C -9959.29+17250j;
	constant_power_A 5000+3200j;
	constant_power_B 8048.0975+8535.7831j;
	constant_power_C 5000+3200j;
	nominal_voltage 19918.58;
	load_class A;
}

object load:1156
{
	name R2-35-00-1_load_31;
	parent R2-35-00-1_meter_31;
	phases ABCN;
	voltage_A 19918.58+0.0j;
	voltage_B -9959.29-17250j;
	voltage_C -9959.29+17250j;
	constant_power_A 5000+3200j;
	constant_power_B 3219.239+3414.3132j;
	constant_power_C 5000+3200j;
	nominal_voltage 19918.58;
	load_class A;
}

object load:1157
{
	name R2-35-00-1_load_32;
	parent R2-35-00-1_meter_32;
	phases BN;
	voltage_B -9959.29-17250j;
	constant_power_B 9657.717+10242.9397j;
	nominal_voltage 19918.58;
	load_class A;
}

object load:1158
{
	name R2-35-00-1_load_33;
	parent R2-35-00-1_meter_33;
	phases ABCN;
	voltage_A 19918.58+0.0j;
	voltage_B -9959.29-17250j;
	voltage_C -9959.29+17250j;
	constant_power_A 3288.458+3467.0065j;
	constant_power_B 5000+3200j;
	constant_power_C 5000+3200j;
	nominal_voltage 19918.58;
	load_class A;
}

object load:1159
{
	name R2-35-00-1_load_34;
	parent R2-35-00-1_meter_34;
	phases BN;
	voltage_B -9959.29-17250j;
	constant_power_B 12876.956+13657.253j;
	nominal_voltage 19918.58;
	load_class A;
}

object load:1160
{
	name R2-35-00-1_load_35;
	parent R2-35-00-1_meter_35;
	phases BN;
	voltage_B -9959.29-17250j;
	constant_power_B 8048.0975+8535.7831j;
	nominal_voltage 19918.58;
	load_class A;
}

object load:1161
{
	name R2-35-00-1_load_36;
	parent R2-35-00-1_meter_36;
	phases BN;
	voltage_B -9959.29-17250j;
	constant_power_B 4828.8585+5121.4699j;
	nominal_voltage 19918.58;
	load_class A;
}

object load:1162
{
	name R2-35-00-1_load_37;
	parent R2-35-00-1_meter_37;
	phases BN;
	voltage_B -9959.29-17250j;
	constant_power_B 4828.8585+5121.4699j;
	nominal_voltage 19918.58;
	load_class A;
}

object load:1163
{
	name R2-35-00-1_load_38;
	parent R2-35-00-1_meter_38;
	phases BN;
	voltage_B -9959.29-17250j;
	constant_power_B 8048.0975+8535.7831j;
	nominal_voltage 19918.58;
	load_class A;
}

object load:1164
{
	name R2-35-00-1_load_39;
	parent R2-35-00-1_meter_39;
	phases BN;
	voltage_B -9959.29-17250j;
	constant_power_B 4828.8585+5121.4699j;
	nominal_voltage 19918.58;
	load_class A;
}

object load:1165
{
	name R2-35-00-1_load_40;
	parent R2-35-00-1_meter_40;
	phases CN;
	voltage_C -9959.29+17250j;
	constant_power_C 14358.1159+15223.5841j;
	nominal_voltage 19918.58;
	load_class A;
}

object load:1166
{
	name R2-35-00-1_load_41;
	parent R2-35-00-1_meter_41;
	phases CN;
	voltage_C -9959.29+17250j;
	constant_power_C 9572.0773+10149.0561j;
	nominal_voltage 19918.58;
	load_class A;
}

object load:1167
{
	name R2-35-00-1_load_42;
	parent R2-35-00-1_meter_42;
	phases CN;
	voltage_C -9959.29+17250j;
	constant_power_C 4786.0386+5074.528j;
	nominal_voltage 19918.58;
	load_class A;
}

object load:1168
{
	name R2-35-00-1_load_43;
	parent R2-35-00-1_meter_43;
	phases CN;
	voltage_C -9959.29+17250j;
	constant_power_C 17548.8084+18606.6028j;
	nominal_voltage 19918.58;
	load_class A;
}

object load:1169
{
	name R2-35-00-1_load_44;
	parent R2-35-00-1_meter_44;
	phases CN;
	voltage_C -9959.29+17250j;
	constant_power_C 9572.0773+10149.0561j;
	nominal_voltage 19918.58;
	load_class A;
}

object load:1170
{
	name R2-35-00-1_load_45;
	parent R2-35-00-1_meter_45;
	phases BN;
	voltage_B -9959.29-17250j;
	constant_power_B 8048.0975+8535.7831j;
	nominal_voltage 19918.58;
	load_class A;
}

object load:1171
{
	name R2-35-00-1_load_46;
	parent R2-35-00-1_meter_46;
	phases ABCN;
	voltage_A 19918.58+0.0j;
	voltage_B -9959.29-17250j;
	voltage_C -9959.29+17250j;
	constant_power_A 4932.687+5200.5098j;
	constant_power_B 8048.0975+8535.7831j;
	constant_power_C 5000+3200j;
	nominal_voltage 19918.58;
	load_class A;
}

object load:1172
{
	name R2-35-00-1_load_47;
	parent R2-35-00-1_meter_47;
	phases ABCN;
	voltage_A 19918.58+0.0j;
	voltage_B -9959.29-17250j;
	voltage_C -9959.29+17250j;
	constant_power_A 8221.145+8667.5163j;
	constant_power_B 8048.0975+8535.7831j;
	constant_power_C 7976.7311+8457.5467j;
	nominal_voltage 19918.58;
	load_class A;
}

object load:1173
{
	name R2-35-00-1_load_48;
	parent R2-35-00-1_meter_48;
	phases BN;
	voltage_B -9959.29-17250j;
	constant_power_B 16096.195+17071.5662j;
	nominal_voltage 19918.58;
	load_class A;
}

object load:1174
{
	name R2-35-00-1_load_49;
	parent R2-35-00-1_meter_49;
	phases BN;
	voltage_B -9959.29-17250j;
	constant_power_B 9657.717+10242.9397j;
	nominal_voltage 19918.58;
	load_class A;
}

object load:1175
{
	name R2-35-00-1_load_50;
	parent R2-35-00-1_meter_50;
	phases BN;
	voltage_B -9959.29-17250j;
	constant_power_B 4828.8585+5121.4699j;
	nominal_voltage 19918.58;
	load_class A;
}

object load:1176
{
	name R2-35-00-1_load_51;
	parent R2-35-00-1_meter_51;
	phases BN;
	voltage_B -9959.29-17250j;
	constant_power_B 4828.8585+5121.4699j;
	nominal_voltage 19918.58;
	load_class A;
}

object load:1177
{
	name R2-35-00-1_load_52;
	parent R2-35-00-1_meter_52;
	phases AN;
	voltage_A 19918.58+0.0j;
	constant_power_A 4932.687+5200.5098j;
	nominal_voltage 19918.58;
	load_class A;
}

object load:1178
{
	name R2-35-00-1_load_53;
	parent R2-35-00-1_meter_53;
	phases ABCN;
	voltage_A 19918.58+0.0j;
	voltage_B -9959.29-17250j;
	voltage_C -9959.29+17250j;
	constant_power_A 4932.687+5200.5098j;
	constant_power_B 4828.8585+5121.4699j;
	constant_power_C 4786.0386+5074.528j;
	nominal_voltage 19918.58;
	load_class A;
}

object load:1179
{
	name R2-35-00-1_load_54;
	parent R2-35-00-1_meter_54;
	phases ABCN;
	voltage_A 19918.58+0.0j;
	voltage_B -9959.29-17250j;
	voltage_C -9959.29+17250j;
	constant_power_A 12167.2946+12827.9241j;
	constant_power_B 11911.1843+12632.959j;
	constant_power_C 15953.4622+16915.0935j;
	nominal_voltage 19918.58;
	load_class A;
}

object load:1180
{
	name R2-35-00-1_load_55;
	parent R2-35-00-1_meter_55;
	phases CN;
	voltage_C -9959.29+17250j;
	constant_power_C 4786.0386+5074.528j;
	nominal_voltage 19918.58;
	load_class A;
}

object load:1181
{
	name R2-35-00-1_load_56;
	parent R2-35-00-1_meter_56;
	phases ABCN;
	voltage_A 19918.58+0.0j;
	voltage_B -9959.29-17250j;
	voltage_C -9959.29+17250j;
	constant_power_A 4932.687+5200.5098j;
	constant_power_B 4828.8585+5121.4699j;
	constant_power_C 4786.0386+5074.528j;
	nominal_voltage 19918.58;
	load_class A;
}

object load:1182
{
	name R2-35-00-1_load_57;
	parent R2-35-00-1_meter_57;
	phases BCN;
	voltage_B -9959.29-17250j;
	voltage_C -9959.29+17250j;
	constant_power_B 8048.0975+8535.7831j;
	constant_power_C 7976.7311+8457.5467j;
	nominal_voltage 19918.58;
	load_class A;
}

object load:1183
{
	name R2-35-00-1_load_58;
	parent R2-35-00-1_meter_58;
	phases CN;
	voltage_C -9959.29+17250j;
	constant_power_C 7976.7311+8457.5467j;
	nominal_voltage 19918.58;
	load_class A;
}

object load:1184
{
	name R2-35-00-1_load_59;
	parent R2-35-00-1_meter_59;
	phases ABCN;
	voltage_A 19918.58+0.0j;
	voltage_B -9959.29-17250j;
	voltage_C -9959.29+17250j;
	constant_power_A 8221.145+8667.5163j;
	constant_power_B 8048.0975+8535.7831j;
	constant_power_C 7976.7311+8457.5467j;
	nominal_voltage 19918.58;
	load_class A;
}

object load:1185
{
	name R2-35-00-1_load_60;
	parent R2-35-00-1_meter_60;
	phases ABCN;
	voltage_A 19918.58+0.0j;
	voltage_B -9959.29-17250j;
	voltage_C -9959.29+17250j;
	constant_power_A 4932.687+5200.5098j;
	constant_power_B 5794.6302+6145.7638j;
	constant_power_C 4786.0386+5074.528j;
	nominal_voltage 19918.58;
	load_class A;
}

object load:1186
{
	name R2-35-00-1_load_61;
	parent R2-35-00-1_meter_61;
	phases ABCN;
	voltage_A 19918.58+0.0j;
	voltage_B -9959.29-17250j;
	voltage_C -9959.29+17250j;
	constant_power_A 5000+3200j;
	constant_power_B 5000+3200j;
	constant_power_C 4786.0386+5074.528j;
	nominal_voltage 19918.58;
	load_class A;
}

object load:1187
{
	name R2-35-00-1_load_62;
	parent R2-35-00-1_meter_62;
	phases CN;
	voltage_C -9959.29+17250j;
	constant_power_C 4786.0386+5074.528j;
	nominal_voltage 19918.58;
	load_class A;
}

object load:1188
{
	name R2-35-00-1_load_63;
	parent R2-35-00-1_meter_63;
	phases CN;
	voltage_C -9959.29+17250j;
	constant_power_C 3190.6924+3383.0187j;
	nominal_voltage 19918.58;
	load_class A;
}

object load:1189
{
	name R2-35-00-1_load_64;
	parent R2-35-00-1_meter_64;
	phases BN;
	voltage_B -9959.29-17250j;
	constant_power_B 4828.8585+5121.4699j;
	nominal_voltage 19918.58;
	load_class A;
}

object load:1190
{
	name R2-35-00-1_load_65;
	parent R2-35-00-1_meter_65;
	phases BN;
	voltage_B -9959.29-17250j;
	constant_power_B 4828.8585+5121.4699j;
	nominal_voltage 19918.58;
	load_class A;
}

object load:1191
{
	name R2-35-00-1_load_66;
	parent R2-35-00-1_meter_66;
	phases BN;
	voltage_B -9959.29-17250j;
	constant_power_B 9657.717+10242.9397j;
	nominal_voltage 19918.58;
	load_class A;
}

object load:1192
{
	name R2-35-00-1_load_67;
	parent R2-35-00-1_meter_67;
	phases ABCN;
	voltage_A 19918.58+0.0j;
	voltage_B -9959.29-17250j;
	voltage_C -9959.29+17250j;
	constant_power_A 4932.687+5200.5098j;
	constant_power_B 4828.8585+5121.4699j;
	constant_power_C 4786.0386+5074.528j;
	nominal_voltage 19918.58;
	load_class A;
}

object load:1193
{
	name R2-35-00-1_load_68;
	parent R2-35-00-1_meter_68;
	phases ABCN;
	voltage_A 19918.58+0.0j;
	voltage_B -9959.29-17250j;
	voltage_C -9959.29+17250j;
	constant_power_A 12167.2946+12827.9241j;
	constant_power_B 11911.1843+12632.959j;
	constant_power_C 11805.562+12517.1692j;
	nominal_voltage 19918.58;
	load_class A;
}

object load:1194
{
	name R2-35-00-1_load_69;
	parent R2-35-00-1_meter_69;
	phases BN;
	voltage_B -9959.29-17250j;
	constant_power_B 4828.8585+5121.4699j;
	nominal_voltage 19918.58;
	load_class A;
}

object load:1195
{
	name R2-35-00-1_load_70;
	parent R2-35-00-1_meter_70;
	phases BN;
	voltage_B -9959.29-17250j;
	constant_power_B 8048.0975+8535.7831j;
	nominal_voltage 19918.58;
	load_class A;
}

object load:1196
{
	name R2-35-00-1_load_71;
	parent R2-35-00-1_meter_71;
	phases BN;
	voltage_B -9959.29-17250j;
	constant_power_B 4828.8585+5121.4699j;
	nominal_voltage 19918.58;
	load_class A;
}

object load:1197
{
	name R2-35-00-1_load_72;
	parent R2-35-00-1_meter_72;
	phases BN;
	voltage_B -9959.29-17250j;
	constant_power_B 5000+3200j;
	nominal_voltage 19918.58;
	load_class A;
}

object load:1198
{
	name R2-35-00-1_load_73;
	parent R2-35-00-1_meter_73;
	phases ABCN;
	voltage_A 19918.58+0.0j;
	voltage_B -9959.29-17250j;
	voltage_C -9959.29+17250j;
	constant_power_A 12167.2946+12827.9241j;
	constant_power_B 11911.1843+12632.959j;
	constant_power_C 16591.6006+17591.6972j;
	nominal_voltage 19918.58;
	load_class A;
}

object load:1199
{
	name R2-35-00-1_load_74;
	parent R2-35-00-1_meter_74;
	phases ABCN;
	voltage_A 19918.58+0.0j;
	voltage_B -9959.29-17250j;
	voltage_C -9959.29+17250j;
	constant_power_A 2301.9206+2426.9046j;
	constant_power_B 2253.4673+2390.0193j;
	constant_power_C 5000+3200j;
	nominal_voltage 19918.58;
	load_class A;
}

object load:1200
{
	name R2-35-00-1_load_75;
	parent R2-35-00-1_meter_75;
	phases ABCN;
	voltage_A 19918.58+0.0j;
	voltage_B -9959.29-17250j;
	voltage_C -9959.29+17250j;
	constant_power_A 8221.145+8667.5163j;
	constant_power_B 8048.0975+8535.7831j;
	constant_power_C 7976.7311+8457.5467j;
	nominal_voltage 19918.58;
	load_class A;
}

object load:1201
{
	name R2-35-00-1_load_76;
	parent R2-35-00-1_meter_76;
	phases ABCN;
	voltage_A 19918.58+0.0j;
	voltage_B -9959.29-17250j;
	voltage_C -9959.29+17250j;
	constant_power_A 8221.145+8667.5163j;
	constant_power_B 8048.0975+8535.7831j;
	constant_power_C 7976.7311+8457.5467j;
	nominal_voltage 19918.58;
	load_class A;
}

object load:1202
{
	name R2-35-00-1_load_77;
	parent R2-35-00-1_meter_77;
	phases CN;
	voltage_C -9959.29+17250j;
	constant_power_C 20739.5008+21989.6215j;
	nominal_voltage 19918.58;
	load_class A;
}

object load:1203
{
	name R2-35-00-1_load_78;
	parent R2-35-00-1_meter_78;
	phases CN;
	voltage_C -9959.29+17250j;
	constant_power_C 7976.7311+8457.5467j;
	nominal_voltage 19918.58;
	load_class A;
}

object load:1204
{
	name R2-35-00-1_load_79;
	parent R2-35-00-1_meter_79;
	phases AN;
	voltage_A 19918.58+0.0j;
	constant_power_A 4932.687+5200.5098j;
	nominal_voltage 19918.58;
	load_class A;
}

object load:1205
{
	name R2-35-00-1_load_80;
	parent R2-35-00-1_meter_80;
	phases CN;
	voltage_C -9959.29+17250j;
	constant_power_C 4786.0386+5074.528j;
	nominal_voltage 19918.58;
	load_class A;
}

object load:1206
{
	name R2-35-00-1_load_81;
	parent R2-35-00-1_meter_81;
	phases BN;
	voltage_B -9959.29-17250j;
	constant_power_B 8048.0975+8535.7831j;
	nominal_voltage 19918.58;
	load_class A;
}

object load:1207
{
	name R2-35-00-1_load_82;
	parent R2-35-00-1_meter_82;
	phases CN;
	voltage_C -9959.29+17250j;
	constant_power_C 4786.0386+5074.528j;
	nominal_voltage 19918.58;
	load_class A;
}

object load:1208
{
	name R2-35-00-1_load_83;
	parent R2-35-00-1_meter_83;
	phases ABCN;
	voltage_A 19918.58+0.0j;
	voltage_B -9959.29-17250j;
	voltage_C -9959.29+17250j;
	constant_power_A 5000+3200j;
	constant_power_B 4828.8585+5121.4699j;
	constant_power_C 3190.6924+3383.0187j;
	nominal_voltage 19918.58;
	load_class A;
}

object load:1209
{
	name R2-35-00-1_load_84;
	parent R2-35-00-1_meter_84;
	phases ABCN;
	voltage_A 19918.58+0.0j;
	voltage_B -9959.29-17250j;
	voltage_C -9959.29+17250j;
	constant_power_A 4932.687+5200.5098j;
	constant_power_B 8048.0975+8535.7831j;
	constant_power_C 7976.7311+8457.5467j;
	nominal_voltage 19918.58;
	load_class A;
}

object load:1210
{
	name R2-35-00-1_load_85;
	parent R2-35-00-1_meter_85;
	phases BN;
	voltage_B -9959.29-17250j;
	constant_power_B 4828.8585+5121.4699j;
	nominal_voltage 19918.58;
	load_class A;
}

object load:1211
{
	name R2-35-00-1_load_86;
	parent R2-35-00-1_meter_86;
	phases ABCN;
	voltage_A 19918.58+0.0j;
	voltage_B -9959.29-17250j;
	voltage_C -9959.29+17250j;
	constant_power_A 4932.687+5200.5098j;
	constant_power_B 5000+3200j;
	constant_power_C 4786.0386+5074.528j;
	nominal_voltage 19918.58;
	load_class A;
}

object load:1212
{
	name R2-35-00-1_load_87;
	parent R2-35-00-1_meter_87;
	phases BN;
	voltage_B -9959.29-17250j;
	constant_power_B 4828.8585+5121.4699j;
	nominal_voltage 19918.58;
	load_class A;
}

object load:1213
{
	name R2-35-00-1_load_88;
	parent R2-35-00-1_meter_88;
	phases ABCN;
	voltage_A 19918.58+0.0j;
	voltage_B -9959.29-17250j;
	voltage_C -9959.29+17250j;
	constant_power_A 13153.832+13868.0261j;
	constant_power_B 12876.956+13657.253j;
	constant_power_C 12762.7697+13532.0748j;
	nominal_voltage 19918.58;
	load_class A;
}

object load:1214
{
	name R2-35-00-1_load_89;
	parent R2-35-00-1_meter_89;
	phases ABCN;
	voltage_A 19918.58+0.0j;
	voltage_B -9959.29-17250j;
	voltage_C -9959.29+17250j;
	constant_power_A 4932.687+5200.5098j;
	constant_power_B 4828.8585+5121.4699j;
	constant_power_C 9572.0773+10149.0561j;
	nominal_voltage 19918.58;
	load_class A;
}

object load:1215
{
	name R2-35-00-1_load_90;
	parent R2-35-00-1_meter_90;
	phases ABCN;
	voltage_A 19918.58+0.0j;
	voltage_B -9959.29-17250j;
	voltage_C -9959.29+17250j;
	constant_power_A 4932.687+5200.5098j;
	constant_power_B 4828.8585+5121.4699j;
	constant_power_C 4786.0386+5074.528j;
	nominal_voltage 19918.58;
	load_class A;
}

object load:1216
{
	name R2-35-00-1_load_91;
	parent R2-35-00-1_meter_91;
	phases ABCN;
	voltage_A 19918.58+0.0j;
	voltage_B -9959.29-17250j;
	voltage_C -9959.29+17250j;
	constant_power_A 4932.687+5200.5098j;
	constant_power_B 8048.0975+8535.7831j;
	constant_power_C 7976.7311+8457.5467j;
	nominal_voltage 19918.58;
	load_class A;
}

object load:1217
{
	name R2-35-00-1_load_92;
	parent R2-35-00-1_meter_92;
	phases ABCN;
	voltage_A 19918.58+0.0j;
	voltage_B -9959.29-17250j;
	voltage_C -9959.29+17250j;
	constant_power_A 32884.5799+34670.0652j;
	constant_power_B 24144.2925+25607.3494j;
	constant_power_C 23930.1932+25372.6402j;
	nominal_voltage 19918.58;
	load_class A;
}

object load:1218
{
	name R2-35-00-1_load_93;
	parent R2-35-00-1_meter_93;
	phases ABCN;
	voltage_A 19918.58+0.0j;
	voltage_B -9959.29-17250j;
	voltage_C -9959.29+17250j;
	constant_power_A 21374.977+22535.5424j;
	constant_power_B 20925.0535+22193.0361j;
	constant_power_C 20739.5008+21989.6215j;
	nominal_voltage 19918.58;
	load_class A;
}

object load:1219
{
	name R2-35-00-1_load_94;
	parent R2-35-00-1_meter_94;
	phases AN;
	voltage_A 19918.58+0.0j;
	constant_power_A 4932.687+5200.5098j;
	nominal_voltage 19918.58;
	load_class A;
}

object load:1220
{
	name R2-35-00-1_load_95;
	parent R2-35-00-1_meter_95;
	phases AN;
	voltage_A 19918.58+0.0j;
	constant_power_A 5000+3200j;
	nominal_voltage 19918.58;
	load_class A;
}

object load:1221
{
	name R2-35-00-1_load_96;
	parent R2-35-00-1_meter_96;
	phases CN;
	voltage_C -9959.29+17250j;
	constant_power_C 4786.0386+5074.528j;
	nominal_voltage 19918.58;
	load_class A;
}

object load:1222
{
	name R2-35-00-1_load_97;
	parent R2-35-00-1_meter_97;
	phases ABCN;
	voltage_A 19918.58+0.0j;
	voltage_B -9959.29-17250j;
	voltage_C -9959.29+17250j;
	constant_power_A 5000+3200j;
	constant_power_B 5000+3200j;
	constant_power_C 4786.0386+5074.528j;
	nominal_voltage 19918.58;
	load_class A;
}

object load:1223
{
	name R2-35-00-1_load_98;
	parent R2-35-00-1_meter_98;
	phases ABCN;
	voltage_A 19918.58+0.0j;
	voltage_B -9959.29-17250j;
	voltage_C -9959.29+17250j;
	constant_power_A 29596.1219+31203.0587j;
	constant_power_B 24144.2925+25607.3494j;
	constant_power_C 28716.2319+30447.1682j;
	nominal_voltage 19918.58;
	load_class A;
}

object load:1224
{
	name R2-35-00-1_load_99;
	parent R2-35-00-1_meter_99;
	phases ABCN;
	voltage_A 19918.58+0.0j;
	voltage_B -9959.29-17250j;
	voltage_C -9959.29+17250j;
	constant_power_A 16442.29+17335.0326j;
	constant_power_B 16096.195+17071.5662j;
	constant_power_C 15953.4622+16915.0935j;
	nominal_voltage 19918.58;
	load_class A;
}

object load:1225
{
	name R2-35-00-1_load_100;
	parent R2-35-00-1_meter_100;
	phases ABCN;
	voltage_A 19918.58+0.0j;
	voltage_B -9959.29-17250j;
	voltage_C -9959.29+17250j;
	constant_power_A 16442.29+17335.0326j;
	constant_power_B 16096.195+17071.5662j;
	constant_power_C 15953.4622+16915.0935j;
	nominal_voltage 19918.58;
	load_class A;
}

object load:1226
{
	name R2-35-00-1_load_101;
	parent R2-35-00-1_meter_101;
	phases ABCN;
	voltage_A 19918.58+0.0j;
	voltage_B -9959.29-17250j;
	voltage_C -9959.29+17250j;
	constant_power_A 4932.687+5200.5098j;
	constant_power_B 5000+3200j;
	constant_power_C 5000+3200j;
	nominal_voltage 19918.58;
	load_class A;
}

object load:1227
{
	name R2-35-00-1_load_102;
	parent R2-35-00-1_meter_102;
	phases ABCN;
	voltage_A 19918.58+0.0j;
	voltage_B -9959.29-17250j;
	voltage_C -9959.29+17250j;
	constant_power_A 8221.145+8667.5163j;
	constant_power_B 8048.0975+8535.7831j;
	constant_power_C 7976.7311+8457.5467j;
	nominal_voltage 19918.58;
	load_class A;
}

object load:1228
{
	name R2-35-00-1_load_103;
	parent R2-35-00-1_meter_103;
	phases ABCN;
	voltage_A 19918.58+0.0j;
	voltage_B -9959.29-17250j;
	voltage_C -9959.29+17250j;
	constant_power_A 5000+3200j;
	constant_power_B 5000+3200j;
	constant_power_C 4786.0386+5074.528j;
	nominal_voltage 19918.58;
	load_class A;
}

object load:1229
{
	name R2-35-00-1_load_104;
	parent R2-35-00-1_meter_104;
	phases ABCN;
	voltage_A 19918.58+0.0j;
	voltage_B -9959.29-17250j;
	voltage_C -9959.29+17250j;
	constant_power_A 5000+3200j;
	constant_power_B 5000+3200j;
	constant_power_C 5000+3200j;
	nominal_voltage 19918.58;
	load_class A;
}

object load:1230
{
	name R2-35-00-1_load_105;
	parent R2-35-00-1_meter_105;
	phases ABCN;
	voltage_A 19918.58+0.0j;
	voltage_B -9959.29-17250j;
	voltage_C -9959.29+17250j;
	constant_power_A 4932.687+5200.5098j;
	constant_power_B 4828.8585+5121.4699j;
	constant_power_C 4786.0386+5074.528j;
	nominal_voltage 19918.58;
	load_class A;
}

object load:1231
{
	name R2-35-00-1_load_106;
	parent R2-35-00-1_meter_106;
	phases ABCN;
	voltage_A 19918.58+0.0j;
	voltage_B -9959.29-17250j;
	voltage_C -9959.29+17250j;
	constant_power_A 5000+3200j;
	constant_power_B 5000+3200j;
	constant_power_C 4786.0386+5074.528j;
	nominal_voltage 19918.58;
	load_class A;
}

object load:1232
{
	name R2-35-00-1_load_107;
	parent R2-35-00-1_meter_107;
	phases ABCN;
	voltage_A 19918.58+0.0j;
	voltage_B -9959.29-17250j;
	voltage_C -9959.29+17250j;
	constant_power_A 5000+3200j;
	constant_power_B 5000+3200j;
	constant_power_C 7976.7311+8457.5467j;
	nominal_voltage 19918.58;
	load_class A;
}

object load:1233
{
	name R2-35-00-1_load_108;
	parent R2-35-00-1_meter_108;
	phases ABCN;
	voltage_A 19918.58+0.0j;
	voltage_B -9959.29-17250j;
	voltage_C -9959.29+17250j;
	constant_power_A 16442.29+17335.0326j;
	constant_power_B 16096.195+17071.5662j;
	constant_power_C 15953.4622+16915.0935j;
	nominal_voltage 19918.58;
	load_class A;
}

...